AMOSTRA/RIM/_ATERRAMENTO.dss
! Aterramento do neutro (no 4) dos secundarios de BT
! Reactor de 0.5 ohm entre o no 4 e a terra (no 0).
New Reactor.NEUTRO_2599834-9920208v phases=1 bus1=2599834-9920208v.4 bus2=2599834-9920208v.0 R=0.5 X=0
New Reactor.NEUTRO_2599835-9920216v phases=1 bus1=2599835-9920216v.4 bus2=2599835-9920216v.0 R=0.5 X=0
New Reactor.NEUTRO_2599836-9920221v phases=1 bus1=2599836-9920221v.4 bus2=2599836-9920221v.0 R=0.5 X=0
New Reactor.NEUTRO_2599837-9919822v phases=1 bus1=2599837-9919822v.4 bus2=2599837-9919822v.0 R=0.5 X=0
New Reactor.NEUTRO_2599838-9920224v phases=1 bus1=2599838-9920224v.4 bus2=2599838-9920224v.0 R=0.5 X=0
New Reactor.NEUTRO_2599839-9920217v phases=1 bus1=2599839-9920217v.4 bus2=2599839-9920217v.0 R=0.5 X=0
New Reactor.NEUTRO_2599840-9919139v phases=1 bus1=2599840-9919139v.4 bus2=2599840-9919139v.0 R=0.5 X=0
New Reactor.NEUTRO_2599841-9919518v phases=1 bus1=2599841-9919518v.4 bus2=2599841-9919518v.0 R=0.5 X=0
New Reactor.NEUTRO_2599849-9919927v phases=1 bus1=2599849-9919927v.4 bus2=2599849-9919927v.0 R=0.5 X=0
New Reactor.NEUTRO_2599850-11781867 phases=1 bus1=2599850-11781867.4 bus2=2599850-11781867.0 R=0.5 X=0
New Reactor.NEUTRO_2599851-9919818v phases=1 bus1=2599851-9919818v.4 bus2=2599851-9919818v.0 R=0.5 X=0
New Reactor.NEUTRO_2599852-9918938v phases=1 bus1=2599852-9918938v.4 bus2=2599852-9918938v.0 R=0.5 X=0
New Reactor.NEUTRO_2599853-9920212v phases=1 bus1=2599853-9920212v.4 bus2=2599853-9920212v.0 R=0.5 X=0
New Reactor.NEUTRO_2599854-9919137v phases=1 bus1=2599854-9919137v.4 bus2=2599854-9919137v.0 R=0.5 X=0
New Reactor.NEUTRO_2599856-9918921v phases=1 bus1=2599856-9918921v.4 bus2=2599856-9918921v.0 R=0.5 X=0
New Reactor.NEUTRO_2599857-9920215v phases=1 bus1=2599857-9920215v.4 bus2=2599857-9920215v.0 R=0.5 X=0
New Reactor.NEUTRO_2599858-9918943v phases=1 bus1=2599858-9918943v.4 bus2=2599858-9918943v.0 R=0.5 X=0
New Reactor.NEUTRO_2599859-9918706v phases=1 bus1=2599859-9918706v.4 bus2=2599859-9918706v.0 R=0.5 X=0
New Reactor.NEUTRO_2599860-9919929v phases=1 bus1=2599860-9919929v.4 bus2=2599860-9919929v.0 R=0.5 X=0
New Reactor.NEUTRO_2599862-9919829v phases=1 bus1=2599862-9919829v.4 bus2=2599862-9919829v.0 R=0.5 X=0
New Reactor.NEUTRO_2599875-9918923v phases=1 bus1=2599875-9918923v.4 bus2=2599875-9918923v.0 R=0.5 X=0
New Reactor.NEUTRO_2599877-9918713v phases=1 bus1=2599877-9918713v.4 bus2=2599877-9918713v.0 R=0.5 X=0
New Reactor.NEUTRO_2599878-9919934v phases=1 bus1=2599878-9919934v.4 bus2=2599878-9919934v.0 R=0.5 X=0
New Reactor.NEUTRO_2599879-9918705v phases=1 bus1=2599879-9918705v.4 bus2=2599879-9918705v.0 R=0.5 X=0
New Reactor.NEUTRO_2599880-9919348v phases=1 bus1=2599880-9919348v.4 bus2=2599880-9919348v.0 R=0.5 X=0
New Reactor.NEUTRO_2599881-9918723v phases=1 bus1=2599881-9918723v.4 bus2=2599881-9918723v.0 R=0.5 X=0
New Reactor.NEUTRO_2599882-9920220v phases=1 bus1=2599882-9920220v.4 bus2=2599882-9920220v.0 R=0.5 X=0
New Reactor.NEUTRO_2599883-9918929v phases=1 bus1=2599883-9918929v.4 bus2=2599883-9918929v.0 R=0.5 X=0
New Reactor.NEUTRO_2599886-9918717v phases=1 bus1=2599886-9918717v.4 bus2=2599886-9918717v.0 R=0.5 X=0
New Reactor.NEUTRO_2599887-9919511v phases=1 bus1=2599887-9919511v.4 bus2=2599887-9919511v.0 R=0.5 X=0
New Reactor.NEUTRO_2599888-9919816v phases=1 bus1=2599888-9919816v.4 bus2=2599888-9919816v.0 R=0.5 X=0
New Reactor.NEUTRO_2599889-9918922v phases=1 bus1=2599889-9918922v.4 bus2=2599889-9918922v.0 R=0.5 X=0
New Reactor.NEUTRO_2599890-9918719v phases=1 bus1=2599890-9918719v.4 bus2=2599890-9918719v.0 R=0.5 X=0
New Reactor.NEUTRO_2599891-9918918v phases=1 bus1=2599891-9918918v.4 bus2=2599891-9918918v.0 R=0.5 X=0
New Reactor.NEUTRO_2599892-9919133v phases=1 bus1=2599892-9919133v.4 bus2=2599892-9919133v.0 R=0.5 X=0
New Reactor.NEUTRO_2599900-9918944v phases=1 bus1=2599900-9918944v.4 bus2=2599900-9918944v.0 R=0.5 X=0
New Reactor.NEUTRO_2599901-9919821v phases=1 bus1=2599901-9919821v.4 bus2=2599901-9919821v.0 R=0.5 X=0
New Reactor.NEUTRO_2599902-9919985 phases=1 bus1=2599902-9919985.4 bus2=2599902-9919985.0 R=0.5 X=0
New Reactor.NEUTRO_2599903-9919140v phases=1 bus1=2599903-9919140v.4 bus2=2599903-9919140v.0 R=0.5 X=0
New Reactor.NEUTRO_2599904-9919596v phases=1 bus1=2599904-9919596v.4 bus2=2599904-9919596v.0 R=0.5 X=0
New Reactor.NEUTRO_2599906-9919820v phases=1 bus1=2599906-9919820v.4 bus2=2599906-9919820v.0 R=0.5 X=0
New Reactor.NEUTRO_2599907-9919516v phases=1 bus1=2599907-9919516v.4 bus2=2599907-9919516v.0 R=0.5 X=0
New Reactor.NEUTRO_2599908-9919132v phases=1 bus1=2599908-9919132v.4 bus2=2599908-9919132v.0 R=0.5 X=0
New Reactor.NEUTRO_2599909-9919127v phases=1 bus1=2599909-9919127v.4 bus2=2599909-9919127v.0 R=0.5 X=0
New Reactor.NEUTRO_2599910-9919931v phases=1 bus1=2599910-9919931v.4 bus2=2599910-9919931v.0 R=0.5 X=0
New Reactor.NEUTRO_2599911-9918930v phases=1 bus1=2599911-9918930v.4 bus2=2599911-9918930v.0 R=0.5 X=0
New Reactor.NEUTRO_2599913-9920205v phases=1 bus1=2599913-9920205v.4 bus2=2599913-9920205v.0 R=0.5 X=0
New Reactor.NEUTRO_2599914-9919512v phases=1 bus1=2599914-9919512v.4 bus2=2599914-9919512v.0 R=0.5 X=0
New Reactor.NEUTRO_2599915-9918792v phases=1 bus1=2599915-9918792v.4 bus2=2599915-9918792v.0 R=0.5 X=0
New Reactor.NEUTRO_2599916-9918924v phases=1 bus1=2599916-9918924v.4 bus2=2599916-9918924v.0 R=0.5 X=0
New Reactor.NEUTRO_2599917-9920214v phases=1 bus1=2599917-9920214v.4 bus2=2599917-9920214v.0 R=0.5 X=0
New Reactor.NEUTRO_2599918-9919519v phases=1 bus1=2599918-9919519v.4 bus2=2599918-9919519v.0 R=0.5 X=0
New Reactor.NEUTRO_2599919-9919932v phases=1 bus1=2599919-9919932v.4 bus2=2599919-9919932v.0 R=0.5 X=0
New Reactor.NEUTRO_2599939-9919134v phases=1 bus1=2599939-9919134v.4 bus2=2599939-9919134v.0 R=0.5 X=0
New Reactor.NEUTRO_2599940-9919587 phases=1 bus1=2599940-9919587.4 bus2=2599940-9919587.0 R=0.5 X=0
New Reactor.NEUTRO_2599941-9919527v phases=1 bus1=2599941-9919527v.4 bus2=2599941-9919527v.0 R=0.5 X=0
New Reactor.NEUTRO_2599942-9919136v phases=1 bus1=2599942-9919136v.4 bus2=2599942-9919136v.0 R=0.5 X=0
New Reactor.NEUTRO_2599943-9920213v phases=1 bus1=2599943-9920213v.4 bus2=2599943-9920213v.0 R=0.5 X=0
New Reactor.NEUTRO_2599944-9918708v phases=1 bus1=2599944-9918708v.4 bus2=2599944-9918708v.0 R=0.5 X=0
New Reactor.NEUTRO_2599946-9919340v phases=1 bus1=2599946-9919340v.4 bus2=2599946-9919340v.0 R=0.5 X=0
New Reactor.NEUTRO_2599950-9919923v phases=1 bus1=2599950-9919923v.4 bus2=2599950-9919923v.0 R=0.5 X=0
New Reactor.NEUTRO_2599951-9919347v phases=1 bus1=2599951-9919347v.4 bus2=2599951-9919347v.0 R=0.5 X=0
New Reactor.NEUTRO_2599952-9918933v phases=1 bus1=2599952-9918933v.4 bus2=2599952-9918933v.0 R=0.5 X=0
New Reactor.NEUTRO_2599953-9918710v phases=1 bus1=2599953-9918710v.4 bus2=2599953-9918710v.0 R=0.5 X=0
New Reactor.NEUTRO_2599955-9919935v phases=1 bus1=2599955-9919935v.4 bus2=2599955-9919935v.0 R=0.5 X=0
New Reactor.NEUTRO_2599956-9918715v phases=1 bus1=2599956-9918715v.4 bus2=2599956-9918715v.0 R=0.5 X=0
New Reactor.NEUTRO_2599957-9918919v phases=1 bus1=2599957-9918919v.4 bus2=2599957-9918919v.0 R=0.5 X=0
New Reactor.NEUTRO_2599958-9918925v phases=1 bus1=2599958-9918925v.4 bus2=2599958-9918925v.0 R=0.5 X=0
New Reactor.NEUTRO_2599973-9920211v phases=1 bus1=2599973-9920211v.4 bus2=2599973-9920211v.0 R=0.5 X=0
New Reactor.NEUTRO_2599974-9920206v phases=1 bus1=2599974-9920206v.4 bus2=2599974-9920206v.0 R=0.5 X=0
New Reactor.NEUTRO_2599975-9919926v phases=1 bus1=2599975-9919926v.4 bus2=2599975-9919926v.0 R=0.5 X=0
New Reactor.NEUTRO_2599981-9919336v phases=1 bus1=2599981-9919336v.4 bus2=2599981-9919336v.0 R=0.5 X=0
New Reactor.NEUTRO_2599982-9919793v phases=1 bus1=2599982-9919793v.4 bus2=2599982-9919793v.0 R=0.5 X=0
New Reactor.NEUTRO_2599983-9918939v phases=1 bus1=2599983-9918939v.4 bus2=2599983-9918939v.0 R=0.5 X=0
New Reactor.NEUTRO_2599984-9918931v phases=1 bus1=2599984-9918931v.4 bus2=2599984-9918931v.0 R=0.5 X=0
New Reactor.NEUTRO_2599985-9919344v phases=1 bus1=2599985-9919344v.4 bus2=2599985-9919344v.0 R=0.5 X=0
New Reactor.NEUTRO_2599986-9918936v phases=1 bus1=2599986-9918936v.4 bus2=2599986-9918936v.0 R=0.5 X=0
New Reactor.NEUTRO_2599987-9919925v phases=1 bus1=2599987-9919925v.4 bus2=2599987-9919925v.0 R=0.5 X=0
New Reactor.NEUTRO_2599988-9919334v phases=1 bus1=2599988-9919334v.4 bus2=2599988-9919334v.0 R=0.5 X=0
New Reactor.NEUTRO_2599990-9918720v phases=1 bus1=2599990-9918720v.4 bus2=2599990-9918720v.0 R=0.5 X=0
New Reactor.NEUTRO_2599991-9918937v phases=1 bus1=2599991-9918937v.4 bus2=2599991-9918937v.0 R=0.5 X=0
New Reactor.NEUTRO_2599992-9918712v phases=1 bus1=2599992-9918712v.4 bus2=2599992-9918712v.0 R=0.5 X=0
New Reactor.NEUTRO_2599993-9919517v phases=1 bus1=2599993-9919517v.4 bus2=2599993-9919517v.0 R=0.5 X=0
New Reactor.NEUTRO_2600014-9919345v phases=1 bus1=2600014-9919345v.4 bus2=2600014-9919345v.0 R=0.5 X=0
New Reactor.NEUTRO_2600015-9919341v phases=1 bus1=2600015-9919341v.4 bus2=2600015-9919341v.0 R=0.5 X=0
New Reactor.NEUTRO_2600016-9919830v phases=1 bus1=2600016-9919830v.4 bus2=2600016-9919830v.0 R=0.5 X=0
New Reactor.NEUTRO_2600017-9918920v phases=1 bus1=2600017-9918920v.4 bus2=2600017-9918920v.0 R=0.5 X=0
New Reactor.NEUTRO_2600018-9918711v phases=1 bus1=2600018-9918711v.4 bus2=2600018-9918711v.0 R=0.5 X=0
New Reactor.NEUTRO_2600019-9919520v phases=1 bus1=2600019-9919520v.4 bus2=2600019-9919520v.0 R=0.5 X=0
New Reactor.NEUTRO_2600029-9920209v phases=1 bus1=2600029-9920209v.4 bus2=2600029-9920209v.0 R=0.5 X=0
New Reactor.NEUTRO_2600030-9919141v phases=1 bus1=2600030-9919141v.4 bus2=2600030-9919141v.0 R=0.5 X=0
New Reactor.NEUTRO_2600031-9918935v phases=1 bus1=2600031-9918935v.4 bus2=2600031-9918935v.0 R=0.5 X=0
New Reactor.NEUTRO_2600032-9919522v phases=1 bus1=2600032-9919522v.4 bus2=2600032-9919522v.0 R=0.5 X=0
New Reactor.NEUTRO_2600033-9919491v phases=1 bus1=2600033-9919491v.4 bus2=2600033-9919491v.0 R=0.5 X=0
New Reactor.NEUTRO_2600034-9918926v phases=1 bus1=2600034-9918926v.4 bus2=2600034-9918926v.0 R=0.5 X=0
New Reactor.NEUTRO_2600035-9920225v phases=1 bus1=2600035-9920225v.4 bus2=2600035-9920225v.0 R=0.5 X=0
New Reactor.NEUTRO_2600036-9920092v phases=1 bus1=2600036-9920092v.4 bus2=2600036-9920092v.0 R=0.5 X=0
New Reactor.NEUTRO_2600038-9919138v phases=1 bus1=2600038-9919138v.4 bus2=2600038-9919138v.0 R=0.5 X=0
New Reactor.NEUTRO_2600039-9919514 phases=1 bus1=2600039-9919514.4 bus2=2600039-9919514.0 R=0.5 X=0
New Reactor.NEUTRO_2600040-9918934v phases=1 bus1=2600040-9918934v.4 bus2=2600040-9918934v.0 R=0.5 X=0
New Reactor.NEUTRO_2600052-9919130v phases=1 bus1=2600052-9919130v.4 bus2=2600052-9919130v.0 R=0.5 X=0
New Reactor.NEUTRO_2600053-9919339v phases=1 bus1=2600053-9919339v.4 bus2=2600053-9919339v.0 R=0.5 X=0
New Reactor.NEUTRO_2600054-9919337v phases=1 bus1=2600054-9919337v.4 bus2=2600054-9919337v.0 R=0.5 X=0
New Reactor.NEUTRO_2600055-9919815v phases=1 bus1=2600055-9919815v.4 bus2=2600055-9919815v.0 R=0.5 X=0
New Reactor.NEUTRO_2600056-9919524v phases=1 bus1=2600056-9919524v.4 bus2=2600056-9919524v.0 R=0.5 X=0
New Reactor.NEUTRO_2600057-9918722v phases=1 bus1=2600057-9918722v.4 bus2=2600057-9918722v.0 R=0.5 X=0
New Reactor.NEUTRO_2600058-9919933v phases=1 bus1=2600058-9919933v.4 bus2=2600058-9919933v.0 R=0.5 X=0
New Reactor.NEUTRO_2600066-9919668v phases=1 bus1=2600066-9919668v.4 bus2=2600066-9919668v.0 R=0.5 X=0
New Reactor.NEUTRO_2600067-9919636v phases=1 bus1=2600067-9919636v.4 bus2=2600067-9919636v.0 R=0.5 X=0
New Reactor.NEUTRO_2600069-9918927v phases=1 bus1=2600069-9918927v.4 bus2=2600069-9918927v.0 R=0.5 X=0
New Reactor.NEUTRO_2600070-9919936v phases=1 bus1=2600070-9919936v.4 bus2=2600070-9919936v.0 R=0.5 X=0
New Reactor.NEUTRO_2600071-9919515v phases=1 bus1=2600071-9919515v.4 bus2=2600071-9919515v.0 R=0.5 X=0
New Reactor.NEUTRO_2600072-9918941v phases=1 bus1=2600072-9918941v.4 bus2=2600072-9918941v.0 R=0.5 X=0
New Reactor.NEUTRO_2600073-9919930v phases=1 bus1=2600073-9919930v.4 bus2=2600073-9919930v.0 R=0.5 X=0
New Reactor.NEUTRO_2600074-9919135v phases=1 bus1=2600074-9919135v.4 bus2=2600074-9919135v.0 R=0.5 X=0
New Reactor.NEUTRO_2600076-9919814v phases=1 bus1=2600076-9919814v.4 bus2=2600076-9919814v.0 R=0.5 X=0
New Reactor.NEUTRO_2600077-9919813v phases=1 bus1=2600077-9919813v.4 bus2=2600077-9919813v.0 R=0.5 X=0
New Reactor.NEUTRO_2600078-9918928v phases=1 bus1=2600078-9918928v.4 bus2=2600078-9918928v.0 R=0.5 X=0
New Reactor.NEUTRO_2600079-9919817v phases=1 bus1=2600079-9919817v.4 bus2=2600079-9919817v.0 R=0.5 X=0
New Reactor.NEUTRO_2600080-9919529v phases=1 bus1=2600080-9919529v.4 bus2=2600080-9919529v.0 R=0.5 X=0
New Reactor.NEUTRO_2600087-9918716v phases=1 bus1=2600087-9918716v.4 bus2=2600087-9918716v.0 R=0.5 X=0
New Reactor.NEUTRO_2600088-9919521v phases=1 bus1=2600088-9919521v.4 bus2=2600088-9919521v.0 R=0.5 X=0
New Reactor.NEUTRO_2600089-9919128v phases=1 bus1=2600089-9919128v.4 bus2=2600089-9919128v.0 R=0.5 X=0
New Reactor.NEUTRO_2600090-9918718v phases=1 bus1=2600090-9918718v.4 bus2=2600090-9918718v.0 R=0.5 X=0
New Reactor.NEUTRO_2600092-9918612v phases=1 bus1=2600092-9918612v.4 bus2=2600092-9918612v.0 R=0.5 X=0
New Reactor.NEUTRO_2600093-9920204v phases=1 bus1=2600093-9920204v.4 bus2=2600093-9920204v.0 R=0.5 X=0
New Reactor.NEUTRO_2600094-9919826v phases=1 bus1=2600094-9919826v.4 bus2=2600094-9919826v.0 R=0.5 X=0
New Reactor.NEUTRO_2600095-9919510v phases=1 bus1=2600095-9919510v.4 bus2=2600095-9919510v.0 R=0.5 X=0
New Reactor.NEUTRO_2600096-9920218v phases=1 bus1=2600096-9920218v.4 bus2=2600096-9920218v.0 R=0.5 X=0
New Reactor.NEUTRO_2600110-9919823v phases=1 bus1=2600110-9919823v.4 bus2=2600110-9919823v.0 R=0.5 X=0
New Reactor.NEUTRO_2600111-9920219v phases=1 bus1=2600111-9920219v.4 bus2=2600111-9920219v.0 R=0.5 X=0
New Reactor.NEUTRO_2600112-9919526v phases=1 bus1=2600112-9919526v.4 bus2=2600112-9919526v.0 R=0.5 X=0
New Reactor.NEUTRO_2600113-9919824v phases=1 bus1=2600113-9919824v.4 bus2=2600113-9919824v.0 R=0.5 X=0
New Reactor.NEUTRO_2600114-9919342v phases=1 bus1=2600114-9919342v.4 bus2=2600114-9919342v.0 R=0.5 X=0
New Reactor.NEUTRO_2600115-9919343v phases=1 bus1=2600115-9919343v.4 bus2=2600115-9919343v.0 R=0.5 X=0
New Reactor.NEUTRO_2600116-9918522v phases=1 bus1=2600116-9918522v.4 bus2=2600116-9918522v.0 R=0.5 X=0
New Reactor.NEUTRO_2600117-9919812v phases=1 bus1=2600117-9919812v.4 bus2=2600117-9919812v.0 R=0.5 X=0
New Reactor.NEUTRO_2600118-9919125v phases=1 bus1=2600118-9919125v.4 bus2=2600118-9919125v.0 R=0.5 X=0
New Reactor.NEUTRO_2600137-9918830v phases=1 bus1=2600137-9918830v.4 bus2=2600137-9918830v.0 R=0.5 X=0
New Reactor.NEUTRO_2600139-9919819v phases=1 bus1=2600139-9919819v.4 bus2=2600139-9919819v.0 R=0.5 X=0
New Reactor.NEUTRO_2600140-9918942v phases=1 bus1=2600140-9918942v.4 bus2=2600140-9918942v.0 R=0.5 X=0
New Reactor.NEUTRO_2600141-9920223v phases=1 bus1=2600141-9920223v.4 bus2=2600141-9920223v.0 R=0.5 X=0
New Reactor.NEUTRO_2600143-9919528v phases=1 bus1=2600143-9919528v.4 bus2=2600143-9919528v.0 R=0.5 X=0
New Reactor.NEUTRO_2600144-9919439v phases=1 bus1=2600144-9919439v.4 bus2=2600144-9919439v.0 R=0.5 X=0
New Reactor.NEUTRO_2600153-9919827v phases=1 bus1=2600153-9919827v.4 bus2=2600153-9919827v.0 R=0.5 X=0
New Reactor.NEUTRO_2600154-9919338v phases=1 bus1=2600154-9919338v.4 bus2=2600154-9919338v.0 R=0.5 X=0
New Reactor.NEUTRO_2600155-9919825v phases=1 bus1=2600155-9919825v.4 bus2=2600155-9919825v.0 R=0.5 X=0
New Reactor.NEUTRO_2600156-9918709v phases=1 bus1=2600156-9918709v.4 bus2=2600156-9918709v.0 R=0.5 X=0
New Reactor.NEUTRO_2600157-9919828v phases=1 bus1=2600157-9919828v.4 bus2=2600157-9919828v.0 R=0.5 X=0
New Reactor.NEUTRO_2600158-9919346v phases=1 bus1=2600158-9919346v.4 bus2=2600158-9919346v.0 R=0.5 X=0
New Reactor.NEUTRO_2602983-9940055v phases=1 bus1=2602983-9940055v.4 bus2=2602983-9940055v.0 R=0.5 X=0
New Reactor.NEUTRO_2602984-9938293v phases=1 bus1=2602984-9938293v.4 bus2=2602984-9938293v.0 R=0.5 X=0
New Reactor.NEUTRO_2602985-9938306v phases=1 bus1=2602985-9938306v.4 bus2=2602985-9938306v.0 R=0.5 X=0
New Reactor.NEUTRO_2602986-9940074v phases=1 bus1=2602986-9940074v.4 bus2=2602986-9940074v.0 R=0.5 X=0
New Reactor.NEUTRO_2602987-9936361v phases=1 bus1=2602987-9936361v.4 bus2=2602987-9936361v.0 R=0.5 X=0
New Reactor.NEUTRO_2602988-9937936 phases=1 bus1=2602988-9937936.4 bus2=2602988-9937936.0 R=0.5 X=0
New Reactor.NEUTRO_2602989-9938805v phases=1 bus1=2602989-9938805v.4 bus2=2602989-9938805v.0 R=0.5 X=0
New Reactor.NEUTRO_2602990-9939837v phases=1 bus1=2602990-9939837v.4 bus2=2602990-9939837v.0 R=0.5 X=0
New Reactor.NEUTRO_2602991-9938280v phases=1 bus1=2602991-9938280v.4 bus2=2602991-9938280v.0 R=0.5 X=0
New Reactor.NEUTRO_2602992-9938709v phases=1 bus1=2602992-9938709v.4 bus2=2602992-9938709v.0 R=0.5 X=0
New Reactor.NEUTRO_2602993-9939023 phases=1 bus1=2602993-9939023.4 bus2=2602993-9939023.0 R=0.5 X=0
New Reactor.NEUTRO_2602994-9936352v phases=1 bus1=2602994-9936352v.4 bus2=2602994-9936352v.0 R=0.5 X=0
New Reactor.NEUTRO_2602995-9936443v phases=1 bus1=2602995-9936443v.4 bus2=2602995-9936443v.0 R=0.5 X=0
New Reactor.NEUTRO_2602996-9938015v phases=1 bus1=2602996-9938015v.4 bus2=2602996-9938015v.0 R=0.5 X=0
New Reactor.NEUTRO_2603020-9935913 phases=1 bus1=2603020-9935913.4 bus2=2603020-9935913.0 R=0.5 X=0
New Reactor.NEUTRO_2603021-9939590v phases=1 bus1=2603021-9939590v.4 bus2=2603021-9939590v.0 R=0.5 X=0
New Reactor.NEUTRO_2603022-9940868v phases=1 bus1=2603022-9940868v.4 bus2=2603022-9940868v.0 R=0.5 X=0
New Reactor.NEUTRO_2603023-9940280v phases=1 bus1=2603023-9940280v.4 bus2=2603023-9940280v.0 R=0.5 X=0
New Reactor.NEUTRO_2603024-9938456 phases=1 bus1=2603024-9938456.4 bus2=2603024-9938456.0 R=0.5 X=0
New Reactor.NEUTRO_2603025-9937728 phases=1 bus1=2603025-9937728.4 bus2=2603025-9937728.0 R=0.5 X=0
New Reactor.NEUTRO_2603026-9938303v phases=1 bus1=2603026-9938303v.4 bus2=2603026-9938303v.0 R=0.5 X=0
New Reactor.NEUTRO_2603027-9939354v phases=1 bus1=2603027-9939354v.4 bus2=2603027-9939354v.0 R=0.5 X=0
New Reactor.NEUTRO_2603028-9940075v phases=1 bus1=2603028-9940075v.4 bus2=2603028-9940075v.0 R=0.5 X=0
New Reactor.NEUTRO_2603029-9936458v phases=1 bus1=2603029-9936458v.4 bus2=2603029-9936458v.0 R=0.5 X=0
New Reactor.NEUTRO_2603030-9940883v phases=1 bus1=2603030-9940883v.4 bus2=2603030-9940883v.0 R=0.5 X=0
New Reactor.NEUTRO_2603031-9940060v phases=1 bus1=2603031-9940060v.4 bus2=2603031-9940060v.0 R=0.5 X=0
New Reactor.NEUTRO_2603032-9937738v phases=1 bus1=2603032-9937738v.4 bus2=2603032-9937738v.0 R=0.5 X=0
New Reactor.NEUTRO_2603033-9940058v phases=1 bus1=2603033-9940058v.4 bus2=2603033-9940058v.0 R=0.5 X=0
New Reactor.NEUTRO_2603034-9939109v phases=1 bus1=2603034-9939109v.4 bus2=2603034-9939109v.0 R=0.5 X=0
New Reactor.NEUTRO_2603035-9939105v phases=1 bus1=2603035-9939105v.4 bus2=2603035-9939105v.0 R=0.5 X=0
New Reactor.NEUTRO_2603036-9938817v phases=1 bus1=2603036-9938817v.4 bus2=2603036-9938817v.0 R=0.5 X=0
New Reactor.NEUTRO_2603037-9936450v phases=1 bus1=2603037-9936450v.4 bus2=2603037-9936450v.0 R=0.5 X=0
New Reactor.NEUTRO_2603040-9936357v phases=1 bus1=2603040-9936357v.4 bus2=2603040-9936357v.0 R=0.5 X=0
New Reactor.NEUTRO_2603041-9938308v phases=1 bus1=2603041-9938308v.4 bus2=2603041-9938308v.0 R=0.5 X=0
New Reactor.NEUTRO_2603046-9940882 phases=1 bus1=2603046-9940882.4 bus2=2603046-9940882.0 R=0.5 X=0
New Reactor.NEUTRO_2603047-9940286 phases=1 bus1=2603047-9940286.4 bus2=2603047-9940286.0 R=0.5 X=0
New Reactor.NEUTRO_2603048-9937772v phases=1 bus1=2603048-9937772v.4 bus2=2603048-9937772v.0 R=0.5 X=0
New Reactor.NEUTRO_2603049-9936310 phases=1 bus1=2603049-9936310.4 bus2=2603049-9936310.0 R=0.5 X=0
New Reactor.NEUTRO_2603050-9940563 phases=1 bus1=2603050-9940563.4 bus2=2603050-9940563.0 R=0.5 X=0
New Reactor.NEUTRO_2603051-9940842v phases=1 bus1=2603051-9940842v.4 bus2=2603051-9940842v.0 R=0.5 X=0
New Reactor.NEUTRO_2603052-9939635v phases=1 bus1=2603052-9939635v.4 bus2=2603052-9939635v.0 R=0.5 X=0
New Reactor.NEUTRO_2603053-9937748v phases=1 bus1=2603053-9937748v.4 bus2=2603053-9937748v.0 R=0.5 X=0
New Reactor.NEUTRO_2603054-9940887v phases=1 bus1=2603054-9940887v.4 bus2=2603054-9940887v.0 R=0.5 X=0
New Reactor.NEUTRO_2603073-9940929v phases=1 bus1=2603073-9940929v.4 bus2=2603073-9940929v.0 R=0.5 X=0
New Reactor.NEUTRO_2603074-9936766 phases=1 bus1=2603074-9936766.4 bus2=2603074-9936766.0 R=0.5 X=0
New Reactor.NEUTRO_2603075-9940243v phases=1 bus1=2603075-9940243v.4 bus2=2603075-9940243v.0 R=0.5 X=0
New Reactor.NEUTRO_2603076-11781869 phases=1 bus1=2603076-11781869.4 bus2=2603076-11781869.0 R=0.5 X=0
New Reactor.NEUTRO_2603079-9940097v phases=1 bus1=2603079-9940097v.4 bus2=2603079-9940097v.0 R=0.5 X=0
New Reactor.NEUTRO_2603080-9936362v phases=1 bus1=2603080-9936362v.4 bus2=2603080-9936362v.0 R=0.5 X=0
New Reactor.NEUTRO_2603081-9940853v phases=1 bus1=2603081-9940853v.4 bus2=2603081-9940853v.0 R=0.5 X=0
...
